#======================================================================

# CRYSTAL DATA

#----------------------------------------------------------------------

data_VESTA_phase_1


_chemical_name_common                  '100control g                          '
_cell_length_a                         10.35175
_cell_length_b                         5.17357
_cell_length_c                         15.44885
_cell_angle_alpha                      98.06188
_cell_angle_beta                       93.00000
_cell_angle_gamma                      122.00000
_space_group_name_H-M_alt              'P 1'
_space_group_IT_number                 1

loop_
_space_group_symop_operation_xyz
   'x, y, z'

loop_
   _atom_site_label
   _atom_site_occupancy
   _atom_site_fract_x
   _atom_site_fract_y
   _atom_site_fract_z
   _atom_site_adp_type
   _atom_site_B_iso_or_equiv
   _atom_site_type_symbol
   Li1        1.0     0.330890      0.000028      0.124594     Biso  1.000000 Li
   Li2        1.0     0.835727      0.001046      0.125974     Biso  1.000000 Li
   Li3        1.0     0.330525      0.001635      0.624044     Biso  1.000000 Li
   Li4        1.0     0.835669      0.001355      0.620084     Biso  1.000000 Li
   Al1        1.0     0.000917      0.666912      0.121133     Biso  1.000000 Al
   Al2        1.0     0.165300      0.328902      0.124194     Biso  1.000000 Al
   Al3        1.0     0.497112      0.665878      0.122662     Biso  1.000000 Al
   Al4        1.0     0.667246      0.331730      0.122000     Biso  1.000000 Al
   Al5        1.0     0.003252      0.670979      0.624438     Biso  1.000000 Al
   Al6        1.0     0.167738      0.334729      0.624781     Biso  1.000000 Al
   Al7        1.0     0.498535      0.667444      0.623143     Biso  1.000000 Al
   Al8        1.0     0.668817      0.335335      0.624470     Biso  1.000000 Al
   H1         1.0    -0.002277     -0.040699      0.991998     Biso  1.000000 H
   H2         1.0     0.160212      0.619226      0.004328     Biso  1.000000 H
   H3         1.0     0.297662      0.305458      0.991804     Biso  1.000000 H
   H4         1.0     0.482351     -0.060195      0.993936     Biso  1.000000 H
   H5         1.0     0.654627      0.638402      0.001691     Biso  1.000000 H
   H6         1.0     0.829856      0.301460      0.990565     Biso  1.000000 H
   H7         1.0     0.025974      0.404763      0.249307     Biso  1.000000 H
   H8         1.0     0.162531      0.010168      0.250544     Biso  1.000000 H
   H9         1.0     0.350129      0.667202      0.256667     Biso  1.000000 H
   H10        1.0     0.517924      0.393634      0.246833     Biso  1.000000 H
   H11        1.0     0.670247      0.033301      0.250516     Biso  1.000000 H
   H12        1.0     0.882655      0.696658      0.252503     Biso  1.000000 H
   H13        1.0     0.678010      0.961656      0.340138     Biso  1.000000 H
   H14        1.0     0.771017      0.702546      0.350806     Biso  1.000000 H
   H15        1.0     0.592143      0.824452      0.329548     Biso  1.000000 H
   H16        1.0     0.494308      0.208765      0.363167     Biso  1.000000 H
   H17        1.0    -0.026314     -0.057983      0.497927     Biso  1.000000 H
   H18        1.0     0.135231      0.574680      0.500727     Biso  1.000000 H
   H19        1.0     0.311870      0.325552      0.494110     Biso  1.000000 H
   H20        1.0     0.488340     -0.061372      0.495734     Biso  1.000000 H
   H21        1.0     0.646066      0.606757      0.501683     Biso  1.000000 H
   H22        1.0     0.812827      0.312042      0.492147     Biso  1.000000 H
   H23        1.0     0.007140      0.364797      0.742233     Biso  1.000000 H
   H24        1.0     0.164947      0.038490      0.758146     Biso  1.000000 H
   H25        1.0     0.346003      0.689399      0.759425     Biso  1.000000 H
   H26        1.0     0.512476      0.379316      0.745634     Biso  1.000000 H
   H27        1.0     0.684965      0.044723      0.752763     Biso  1.000000 H
   H28        1.0     0.872324      0.703650      0.756898     Biso  1.000000 H
   H29        1.0     0.793458      0.907310      0.876082     Biso  1.000000 H
   H30        1.0     0.712137      0.546473      0.857582     Biso  1.000000 H
   H31        1.0     0.552276      0.192999      0.873491     Biso  1.000000 H
   H32        1.0     0.567823      0.905340      0.869810     Biso  1.000000 H
   C1         1.0     0.130054      0.144572      0.376410     Biso  1.000000 C
   C2         1.0     0.069044      0.483883      0.874533     Biso  1.000000 C
   O1         1.0    -0.003142     -0.045893      0.054962     Biso  1.000000 O
   O2         1.0     0.139930      0.599007      0.064268     Biso  1.000000 O
   O3         1.0     0.313190      0.317931      0.056386     Biso  1.000000 O
   O4         1.0     0.499606     -0.047875      0.057626     Biso  1.000000 O
   O5         1.0     0.636593      0.595918      0.060509     Biso  1.000000 O
   O6         1.0     0.815645      0.317133      0.053288     Biso  1.000000 O
   O7         1.0     0.025757      0.396942      0.185366     Biso  1.000000 O
   O8         1.0     0.168210      0.039418      0.186831     Biso  1.000000 O
   O9         1.0     0.352269      0.679815      0.193329     Biso  1.000000 O
   O10        1.0     0.528688      0.405580      0.184569     Biso  1.000000 O
   O11        1.0     0.667558      0.046194      0.188298     Biso  1.000000 O
   O12        1.0     0.850516      0.680035      0.188687     Biso  1.000000 O
   O13        1.0     0.272659      0.346026      0.385041     Biso  1.000000 O
   O14        1.0     0.041398      0.234429      0.398656     Biso  1.000000 O
   O15        1.0     0.083567      0.860483      0.336383     Biso  1.000000 O
   O16        1.0     0.769932      0.688241      0.411899     Biso  1.000000 O
   O17        1.0     0.530056      0.432019      0.388766     Biso  1.000000 O
   O18        1.0     0.002224     -0.046173      0.560703     Biso  1.000000 O
   O19        1.0     0.145360      0.607679      0.565126     Biso  1.000000 O
   O20        1.0     0.317747      0.322662      0.557938     Biso  1.000000 O
   O21        1.0     0.501392     -0.044330      0.560164     Biso  1.000000 O
   O22        1.0     0.643891      0.612151      0.566058     Biso  1.000000 O
   O23        1.0     0.816344      0.324215      0.556568     Biso  1.000000 O
   O24        1.0     0.024446      0.395227      0.682855     Biso  1.000000 O
   O25        1.0     0.168302      0.046595      0.695276     Biso  1.000000 O
   O26        1.0     0.351712      0.679987      0.695858     Biso  1.000000 O
   O27        1.0     0.529363      0.404886      0.685254     Biso  1.000000 O
   O28        1.0     0.667015      0.052023      0.690424     Biso  1.000000 O
   O29        1.0     0.852742      0.681118      0.691748     Biso  1.000000 O
   O30        1.0     0.189469      0.469799      0.877650     Biso  1.000000 O
   O31        1.0     0.074513      0.736003      0.868696     Biso  1.000000 O
   O32        1.0     0.930924      0.230851      0.878357     Biso  1.000000 O
   O33        1.0     0.688718      0.702856      0.877580     Biso  1.000000 O
   O34        1.0     0.499483     -0.020331      0.881821     Biso  1.000000 O
