#======================================================================

# CRYSTAL DATA

#----------------------------------------------------------------------

data_VESTA_phase_1


_chemical_name_common                  'Li4 Al8 H32 C2 O34                    '
_cell_length_a                         10.34625
_cell_length_b                         5.17357
_cell_length_c                         15.45700
_cell_angle_alpha                      98.03277
_cell_angle_beta                       92.95073
_cell_angle_gamma                      121.98837
_space_group_name_H-M_alt              'P 1'
_space_group_IT_number                 1

loop_
_space_group_symop_operation_xyz
   'x, y, z'

loop_
   _atom_site_label
   _atom_site_occupancy
   _atom_site_fract_x
   _atom_site_fract_y
   _atom_site_fract_z
   _atom_site_adp_type
   _atom_site_B_iso_or_equiv
   _atom_site_type_symbol
   Li1        1.0     0.331413     -0.002078      0.122346     Biso  1.000000 Li
   Li2        1.0     0.837455      0.012633      0.126939     Biso  1.000000 Li
   Li3        1.0     0.164232      0.322894      0.622392     Biso  1.000000 Li
   Li4        1.0     0.665940      0.318731      0.631198     Biso  1.000000 Li
   Al1        1.0     0.001328      0.673090      0.123279     Biso  1.000000 Al
   Al2        1.0     0.164442      0.336330      0.125413     Biso  1.000000 Al
   Al3        1.0     0.502637      0.675491      0.130181     Biso  1.000000 Al
   Al4        1.0     0.671522      0.339514      0.128261     Biso  1.000000 Al
   Al5        1.0     0.831441      0.980345      0.626587     Biso  1.000000 Al
   Al6        1.0    -0.002454      0.651299      0.629868     Biso  1.000000 Al
   Al7        1.0     0.331204      0.986201      0.627022     Biso  1.000000 Al
   Al8        1.0     0.499465      0.650102      0.624412     Biso  1.000000 Al
   H1         1.0    -0.012790     -0.093319      0.992053     Biso  1.000000 H
   H2         1.0     0.105836      0.533366     -0.004017     Biso  1.000000 H
   H3         1.0     0.300511      0.289685      0.998127     Biso  1.000000 H
   H4         1.0     0.493265     -0.102054     -0.000050     Biso  1.000000 H
   H5         1.0     0.665188      0.650036      0.007626     Biso  1.000000 H
   H6         1.0     0.824684      0.332887      0.996549     Biso  1.000000 H
   H7         1.0     0.037061      0.422377      0.253366     Biso  1.000000 H
   H8         1.0     0.158322      0.065402      0.254554     Biso  1.000000 H
   H9         1.0     0.352505      0.732015      0.256637     Biso  1.000000 H
   H10        1.0     0.516462      0.400171      0.251539     Biso  1.000000 H
   H11        1.0     0.712134      0.093741      0.258233     Biso  1.000000 H
   H12        1.0     0.907085      0.751099      0.255862     Biso  1.000000 H
   H13        1.0     0.774451      0.324008      0.394564     Biso  1.000000 H
   H14        1.0     0.911364      0.292869      0.377221     Biso  1.000000 H
   H15        1.0     0.690181      0.531710      0.345577     Biso  1.000000 H
   H16        1.0     0.540652      0.220671      0.364015     Biso  1.000000 H
   H17        1.0     0.808711      0.197379      0.498504     Biso  1.000000 H
   H18        1.0    -0.013567      0.922255      0.500589     Biso  1.000000 H
   H19        1.0     0.121548      0.582304      0.498555     Biso  1.000000 H
   H20        1.0     0.316300      0.203272      0.494429     Biso  1.000000 H
   H21        1.0     0.444921      0.880914      0.496695     Biso  1.000000 H
   H22        1.0     0.624639      0.569815      0.494741     Biso  1.000000 H
   H23        1.0     0.869442      0.771996      0.756369     Biso  1.000000 H
   H24        1.0     0.027667      0.389937      0.757497     Biso  1.000000 H
   H25        1.0     0.191849      0.058425      0.758077     Biso  1.000000 H
   H26        1.0     0.356129      0.696100      0.749968     Biso  1.000000 H
   H27        1.0     0.517871      0.390101      0.754506     Biso  1.000000 H
   H28        1.0     0.709926      0.985823      0.754718     Biso  1.000000 H
   H29        1.0     0.505225      0.510497      0.877177     Biso  1.000000 H
   H30        1.0     0.610713      0.374329      0.890132     Biso  1.000000 H
   H31        1.0     0.458331      0.941249      0.866359     Biso  1.000000 H
   H32        1.0     0.613468      0.918556      0.874019     Biso  1.000000 H
   C1         1.0     0.152077      0.793262      0.370553     Biso  1.000000 C
   C2         1.0     0.897526      0.163917      0.879822     Biso  1.000000 C
   O1         1.0    -0.002389     -0.045041      0.056369     Biso  1.000000 O
   O2         1.0     0.138653      0.599399      0.060040     Biso  1.000000 O
   O3         1.0     0.316485      0.327383      0.062259     Biso  1.000000 O
   O4         1.0     0.500650     -0.048809      0.064130     Biso  1.000000 O
   O5         1.0     0.642394      0.608238      0.065839     Biso  1.000000 O
   O6         1.0     0.814426      0.326261      0.061853     Biso  1.000000 O
   O7         1.0     0.028684      0.403356      0.189062     Biso  1.000000 O
   O8         1.0     0.165938      0.051962      0.190317     Biso  1.000000 O
   O9         1.0     0.350510      0.685111      0.192965     Biso  1.000000 O
   O10        1.0     0.527452      0.402378      0.189239     Biso  1.000000 O
   O11        1.0     0.670034      0.055839      0.195702     Biso  1.000000 O
   O12        1.0     0.857054      0.692480      0.193734     Biso  1.000000 O
   O13        1.0     0.300301      0.935707      0.379685     Biso  1.000000 O
   O14        1.0     0.078143      0.910407      0.342490     Biso  1.000000 O
   O15        1.0     0.073739      0.515912      0.392387     Biso  1.000000 O
   O16        1.0     0.790086      0.154588      0.377375     Biso  1.000000 O
   O17        1.0     0.602426      0.448546      0.378015     Biso  1.000000 O
   O18        1.0     0.828915      0.264374      0.564132     Biso  1.000000 O
   O19        1.0     0.969417      0.913019      0.561376     Biso  1.000000 O
   O20        1.0     0.145142      0.639560      0.564755     Biso  1.000000 O
   O21        1.0     0.327461      0.266132      0.558666     Biso  1.000000 O
   O22        1.0     0.468176      0.918703      0.561274     Biso  1.000000 O
   O23        1.0     0.644127      0.635888      0.559484     Biso  1.000000 O
   O24        1.0     0.859854      0.717877      0.691098     Biso  1.000000 O
   O25        1.0     0.001447      0.363451      0.694011     Biso  1.000000 O
   O26        1.0     0.182815      0.005884      0.694073     Biso  1.000000 O
   O27        1.0     0.361707      0.717641      0.688760     Biso  1.000000 O
   O28        1.0     0.496986      0.362058      0.690017     Biso  1.000000 O
   O29        1.0     0.686278     -0.007623      0.692168     Biso  1.000000 O
   O30        1.0     0.018467      0.156276      0.871802     Biso  1.000000 O
   O31        1.0     0.904244      0.414166      0.914908     Biso  1.000000 O
   O32        1.0     0.758123      0.907546      0.850436     Biso  1.000000 O
   O33        1.0     0.506495      0.316964      0.868892     Biso  1.000000 O
   O34        1.0     0.499898      0.822235      0.886271     Biso  1.000000 O
