#======================================================================

# CRYSTAL DATA

#----------------------------------------------------------------------

data_VESTA_phase_1


_chemical_name_common                  '210control g                          '
_cell_length_a                         10.34808
_cell_length_b                         5.13862
_cell_length_c                         15.33924
_cell_angle_alpha                      98.06187
_cell_angle_beta                       93.00000
_cell_angle_gamma                      122.00000
_space_group_name_H-M_alt              'P 1'
_space_group_IT_number                 1

loop_
_space_group_symop_operation_xyz
   'x, y, z'

loop_
   _atom_site_label
   _atom_site_occupancy
   _atom_site_fract_x
   _atom_site_fract_y
   _atom_site_fract_z
   _atom_site_adp_type
   _atom_site_B_iso_or_equiv
   _atom_site_type_symbol
   Li1        1.0     0.331908     -0.001020      0.126696     Biso  1.000000 Li
   Li2        1.0     0.836220     -0.000014      0.122342     Biso  1.000000 Li
   Li3        1.0     0.000239      0.666967      0.620554     Biso  1.000000 Li
   Li4        1.0     0.499445      0.667248      0.617516     Biso  1.000000 Li
   Al1        1.0     0.001470      0.671728      0.124776     Biso  1.000000 Al
   Al2        1.0     0.164417      0.333675      0.126219     Biso  1.000000 Al
   Al3        1.0     0.497257      0.666606      0.126783     Biso  1.000000 Al
   Al4        1.0     0.667154      0.338339      0.124714     Biso  1.000000 Al
   Al5        1.0     0.331050     -0.001277      0.619967     Biso  1.000000 Al
   Al6        1.0     0.165135      0.335167      0.625874     Biso  1.000000 Al
   Al7        1.0     0.835884      0.013031      0.624289     Biso  1.000000 Al
   Al8        1.0     0.667919      0.336557      0.621353     Biso  1.000000 Al
   H1         1.0    -0.007983     -0.067868      0.991351     Biso  1.000000 H
   H2         1.0     0.142168      0.598107     -0.001666     Biso  1.000000 H
   H3         1.0     0.279077      0.292244      0.993097     Biso  1.000000 H
   H4         1.0     0.459018     -0.117513      0.994592     Biso  1.000000 H
   H5         1.0     0.617200      0.554991     -0.004799     Biso  1.000000 H
   H6         1.0     0.799615      0.258451      0.995334     Biso  1.000000 H
   H7         1.0     0.025178      0.427091      0.254624     Biso  1.000000 H
   H8         1.0     0.156972      0.089397      0.258821     Biso  1.000000 H
   H9         1.0     0.361373      0.710949      0.255969     Biso  1.000000 H
   H10        1.0     0.548900      0.450665      0.254875     Biso  1.000000 H
   H11        1.0     0.708649      0.134027      0.254520     Biso  1.000000 H
   H12        1.0     0.865757      0.770125      0.252902     Biso  1.000000 H
   H13        1.0     0.617846      0.215962      0.389720     Biso  1.000000 H
   H14        1.0     0.676970      0.006337      0.384454     Biso  1.000000 H
   H15        1.0     0.178948      0.829494      0.369634     Biso  1.000000 H
   H16        1.0     0.358304      0.006168      0.354422     Biso  1.000000 H
   H17        1.0     0.330855      0.754093      0.756341     Biso  1.000000 H
   H18        1.0     0.203343      0.105081      0.755084     Biso  1.000000 H
   H19        1.0     0.031185      0.439715      0.755153     Biso  1.000000 H
   H20        1.0     0.883512      0.794696      0.752206     Biso  1.000000 H
   H21        1.0     0.681660      0.037265      0.746868     Biso  1.000000 H
   H22        1.0     0.519515      0.352718      0.749173     Biso  1.000000 H
   H23        1.0     0.279715      0.212460      0.493757     Biso  1.000000 H
   H24        1.0     0.142648      0.559402      0.491119     Biso  1.000000 H
   H25        1.0    -0.027728     -0.028505      0.494607     Biso  1.000000 H
   H26        1.0     0.821506      0.276088      0.493861     Biso  1.000000 H
   H27        1.0     0.682513      0.594717      0.491441     Biso  1.000000 H
   H28        1.0     0.466989     -0.087467      0.493061     Biso  1.000000 H
   H29        1.0     0.780730      0.249281      0.862702     Biso  1.000000 H
   H30        1.0     0.779461      0.964623      0.869117     Biso  1.000000 H
   H31        1.0     0.496880      0.528973      0.871948     Biso  1.000000 H
   H32        1.0     0.605355      0.396801      0.865535     Biso  1.000000 H
   C1         1.0     0.900822      0.640033      0.375091     Biso  1.000000 C
   C2         1.0     0.063628      0.281213      0.876949     Biso  1.000000 C
   O1         1.0     0.000634     -0.047741      0.058220     Biso  1.000000 O
   O2         1.0     0.140334      0.606560      0.062289     Biso  1.000000 O
   O3         1.0     0.310068      0.315515      0.057454     Biso  1.000000 O
   O4         1.0     0.497715     -0.050355      0.058247     Biso  1.000000 O
   O5         1.0     0.637284      0.601165      0.060198     Biso  1.000000 O
   O6         1.0     0.815654      0.316330      0.059969     Biso  1.000000 O
   O7         1.0     0.025951      0.404973      0.190642     Biso  1.000000 O
   O8         1.0     0.167618      0.054864      0.195957     Biso  1.000000 O
   O9         1.0     0.350865      0.683030      0.191647     Biso  1.000000 O
   O10        1.0     0.524954      0.398238      0.190002     Biso  1.000000 O
   O11        1.0     0.670031      0.059020      0.191649     Biso  1.000000 O
   O12        1.0     0.850072      0.692487      0.188525     Biso  1.000000 O
   O13        1.0     0.034731      0.895046      0.372199     Biso  1.000000 O
   O14        1.0     0.774410      0.647376      0.374610     Biso  1.000000 O
   O15        1.0     0.893487      0.381829      0.378813     Biso  1.000000 O
   O16        1.0     0.577432     -0.010048      0.384104     Biso  1.000000 O
   O17        1.0     0.273143      0.817457      0.370134     Biso  1.000000 O
   O18        1.0     0.335157      0.720860      0.692688     Biso  1.000000 O
   O19        1.0     0.196399      0.073342      0.690317     Biso  1.000000 O
   O20        1.0     0.021227      0.370114      0.687322     Biso  1.000000 O
   O21        1.0     0.837105      0.726344      0.689739     Biso  1.000000 O
   O22        1.0     0.694623      0.069185      0.685329     Biso  1.000000 O
   O23        1.0     0.517428      0.350420      0.685712     Biso  1.000000 O
   O24        1.0     0.302467      0.268372      0.558605     Biso  1.000000 O
   O25        1.0     0.164575      0.617566      0.555516     Biso  1.000000 O
   O26        1.0    -0.017227     -0.012406      0.558994     Biso  1.000000 O
   O27        1.0     0.806284      0.267551      0.556757     Biso  1.000000 O
   O28        1.0     0.666892      0.619261      0.554127     Biso  1.000000 O
   O29        1.0     0.478421     -0.026083      0.557384     Biso  1.000000 O
   O30        1.0     0.212204      0.405700      0.886063     Biso  1.000000 O
   O31        1.0     0.005876      0.437807      0.852664     Biso  1.000000 O
   O32        1.0    -0.031441     -0.003490      0.890975     Biso  1.000000 O
   O33        1.0     0.702177      0.027158      0.863423     Biso  1.000000 O
   O34        1.0     0.500679      0.341995      0.870717     Biso  1.000000 O
